
**** 02/02/17 11:25:01 ****** PSpice Lite (October 2012) ****** ID# 10813 ****

 ** Profile: "SCHEMATIC1-terst"  [ C:\USERS\NATHAN\DOCUMENTS\PROC\half_adder-PSpiceFiles\SCHEMATIC1\terst.sim ] 


 ****     CIRCUIT DESCRIPTION


******************************************************************************




** Creating circuit file "terst.cir" 
** WARNING: THIS AUTOMATICALLY GENERATED FILE MAY BE OVERWRITTEN BY SUBSEQUENT SIMULATIONS

*Libraries: 
* Profile Libraries :
* Local Libraries :
* From [PSPICE NETLIST] section of C:\Users\Nathan\AppData\Roaming\SPB_16.6\cdssetup\OrCAD_PSpice/16.6.0/PSpice.ini file:
.lib "nomd.lib" 

*Analysis directives: 
.TRAN  0 4us 0 
.OPTIONS ADVCONV
.PROBE64 V(alias(*)) I(alias(*)) W(alias(*)) D(alias(*)) NOISE(alias(*)) 
.INC "..\SCHEMATIC1.net" 



**** INCLUDING SCHEMATIC1.net ****
* source HALF_ADDER
R_R2         0 S 1k
V_V1         A 0  
+PULSE 0 1 0 .001us .001us 2 us 4.002 us
-----------------------------$
ERROR -- Expecting keyword STIMULUS, saw us.

R_R1         0 C 1k
V_V3         N03121 N03149 7
V_V4         B 0  
+PULSE 0 1 1us .001us .001us 2 us 4.002 us
-------------------------------$
ERROR -- Expecting keyword STIMULUS, saw us.

M_M1         N02833 A 0 0 MbreakN           
M_M2         S B A A MbreakN           
M_M3         N03121 A N02833 N02833 MbreakP           
M_M4         N02833 B S S MbreakP           
M_M5         B A C C MbreakP           

**** RESUMING terst.cir ****
.END
